New England/MatPower Cases/Hard/Spring13Tight.m
% Case saved by PowerWorld Simulator, version 19, build date July 14, 2016
function mpc = Spring13
mpc.version = '2';
mpc.baseMVA =  100.00;

%% bus data 
mpc.bus = [
      1 2      0.00     0.00      0.00     0.00    1 1.1088543   -22.28266  345.00   1   1.060   1.000    26.24     0.00 0  0
      2 1     85.57    25.16      0.00     0.00    1 1.0324664   -22.29007  345.00   1   1.040   0.950    26.25     0.01 0  0
      3 2      0.00     0.00      0.00     0.00    1 1.0200000   -11.13491  138.00   1   1.060   1.000    26.20     0.00 0  0
      4 1     60.45    16.12      0.00     0.00    1 0.9963972   -19.84665  138.00   1   1.040   0.950    26.15     0.00 0  0
      5 1     66.12    22.57      0.00     0.00    1 0.9995093   -17.65843  230.00   1   1.040   0.950    26.15    -0.00 0  0
      6 1     60.52    18.88      0.00     0.00    1 1.0091262   -11.76249  138.00   1   1.040   0.950    26.15     0.00 0  0
      7 2     97.28    32.77      0.00     0.00    1 1.0200000   -16.87723  138.00   1   1.060   1.000    26.15     0.00 0  0
      8 2     85.69    25.21      0.00     0.00    1 1.0200000   -15.01479  230.00   1   1.060   1.000    26.15     0.00 0  0
      9 1      0.00     0.00      0.00     0.00    1 1.0311341   -16.27252  345.00   1   1.040   0.950    26.15    -0.00 0  0
     10 3     61.99    20.29      0.00     0.00    1 1.0200000     0.00000  138.00   1   1.060   1.000    26.13     0.00 0  0
     11 1      0.00     0.00      0.00     0.00    1 1.0178092    -0.98069  138.00   1   1.040   0.950    26.13    -0.00 0  0
     12 1      1.85     0.56      0.00     0.00    1 1.0174442    -1.77308  138.00   1   1.040   0.950    26.13    -0.00 0  0
     13 1      0.00     0.00      0.00     0.00    1 1.0180887    -3.83703  345.00   1   1.040   0.950    26.13    -0.00 0  0
     14 1     83.35    23.66      0.00     0.00    1 1.0192049   -10.11156  230.00   1   1.040   0.950    26.13    -0.00 0  0
     15 1    102.76    23.21      0.00     0.00    1 1.0112592   -14.14955  230.00   1   1.040   0.950    26.15     0.00 0  0
     16 1    123.35    26.77      0.00     0.00    1 1.0095322   -16.66765  138.00   1   1.040   0.950    26.16     0.00 0  0
     17 1     61.43    19.11      0.00     0.00    1 0.9919747   -18.91800  138.00   1   1.040   0.950    26.19     0.01 0  0
     18 1     71.52    20.90      0.00     0.00    1 0.9910340   -18.11326  138.00   1   1.040   0.950    26.20     0.00 0  0
     19 1     74.69    21.82      0.00     0.00    1 0.9962119   -17.00273  138.00   1   1.040   0.950    26.02    -0.00 0  0
     20 1     71.99    23.67      0.00     0.00    1 1.0043873   -14.46082   69.00   1   1.040   0.950    26.02    -0.00 0  0
     21 1    106.64    24.78      0.00     0.00    1 0.9902420   -19.52399  138.00   1   1.040   0.950    26.11    -0.00 0  0
     22 1     94.45    25.66      0.00     0.00    1 1.0007842    -6.75026  230.00   1   1.040   0.950    26.08    -0.00 0  0
     23 1     69.24    18.62      0.00     0.00    1 1.0053609    -8.42013  230.00   1   1.040   0.950    26.09    -0.00 0  0
     24 2     82.22    24.68      0.00     0.00    1 1.0198047   -11.42229  230.00   1   1.060   1.000    26.12     0.00 0  0
     25 1     59.13    14.66      0.00     0.00    1 0.9924640   -23.97738  230.00   1   1.040   0.950    26.22     0.01 0  0
     26 2     71.17    19.55      0.00     0.00    1 1.0200000   -33.65767  345.00   1   1.060   1.000    26.49     0.00 0  0
     27 1     69.41    21.85      0.00     0.00    1 1.0013800   -31.25522  230.00   1   1.040   0.950    26.45     0.04 0  0
     28 2    111.79    34.36      0.00     0.00    1 1.0200000   -35.14903  138.00   1   1.060   1.000    27.05     0.00 0  0
     29 1     66.46    15.62      0.00     0.00    1 1.0079162   -39.09601  138.00   1   1.040   0.950    26.99    -0.00 0  0
     30 2      0.00     0.00      0.00     0.00    1 1.0216732   -20.81764   14.00   1   1.060   1.000    26.25     0.00 0  0
     31 2      0.00     0.00      0.00     0.00    1 1.0091262   -11.76249   14.00   1   1.060   1.000    26.15     0.00 0  0
     32 2      0.00     0.00      0.00     0.00    1 1.0200000     2.15131   14.00   1   1.060   1.000    26.13     0.00 0  0
     33 2     99.71    22.88      0.00     0.00    1 1.0200000   -14.22839   14.00   1   1.060   1.000    26.02     0.00 0  0
     34 2     57.85    18.95      0.00     0.00    1 1.0200000   -11.52504   14.00   1   1.060   1.000    26.02     0.00 0  0
     35 2      0.00     0.00      0.00     0.00    1 1.0167302     2.19953   14.00   1   1.060   1.000    26.08     0.00 0  0
     36 2      0.00     0.00      0.00     0.00    1 1.0200000    -5.88587   14.00   1   1.060   1.000    26.09     0.00 0  0
     37 2      0.00     0.00      0.00     0.00    1 0.9924640   -23.97738   14.00   1   1.060   1.000    26.22     0.01 0  0
     38 2      0.00     0.00      0.00     0.00    1 1.0079162   -39.09601   14.00   1   1.060   1.000    26.99    -0.00 0  0
     39 1     65.67    19.57      0.00     0.00    1 1.0229809   -29.97339  345.00   1   1.040   0.950    26.39     0.03 0  0
     40 1     67.14    20.30      0.00     0.00    1 1.0138650   -34.45677  345.00   1   1.040   0.950    26.48     0.01 0  0
     41 1     90.16    22.87      0.00     0.00    1 1.0040904   -30.36509  345.00   1   1.040   0.950    26.41     0.03 0  0
     42 1    101.08    28.33      0.00     0.00    1 1.0344971   -38.65532  345.00   1   1.040   0.950    26.66     0.02 0  0
     43 1     89.09    30.12      0.00     0.00    1 1.0182073   -33.61059  345.00   1   1.040   0.950    26.48     0.01 0  0
     44 1     56.79    19.40      0.00     0.00    1 1.0127594   -18.13794  230.00   1   1.040   0.950    26.15     0.00 0  0
     45 1     85.99    24.08      0.00     0.00    1 1.0173547   -17.92808  345.00   1   1.040   0.950    26.15     0.00 0  0
     46 1     76.74    21.29      0.00     0.00    1 0.9852298   -19.81395  138.00   1   1.040   0.950    26.15    -0.00 0  0
     47 1     68.03    20.16      0.00     0.00    1 0.9593094   -22.48665  138.00   1   1.040   0.950    26.15     0.00 0  0
     48 1     83.60    21.82      0.00     0.00    1 0.9982536   -20.27162  345.00   1   1.040   0.950    26.16     0.00 0  0
     49 2     50.80    14.44      0.00     0.00    1 1.0200000   -14.36586  138.00   1   1.060   1.000    26.15     0.00 0  0
     50 1     80.73    22.05      0.00     0.00    1 0.9976798   -18.51205  138.00   1   1.040   0.950    26.15     0.00 0  0
     51 1     66.53    19.65      0.00     0.00    1 0.9995051   -21.75226  138.00   1   1.040   0.950    26.15     0.00 0  0
     52 2     87.82    27.92      0.00     0.00    1 1.0200000   -17.73155  345.00   1   1.060   1.000    26.15     0.00 0  0
     53 1    133.27    32.30      0.00     0.00    1 0.9937086   -21.21710  138.00   1   1.040   0.950    26.15     0.00 0  0
     54 2     53.38    17.58      0.00     0.00    1 1.0200000   -14.46493  230.00   1   1.060   1.000    26.15     0.00 0  0
     55 1     83.16    24.66      0.00     0.00    1 1.0122425   -17.62169  230.00   1   1.040   0.950    26.15     0.00 0  0
     56 2     93.92    22.05      0.00     0.00    1 1.0200000   -10.43470  345.00   1   1.060   1.000    26.15     0.00 0  0
     57 1     46.29    16.25      0.00     0.00    1 0.9741795   -21.26430  138.00   1   1.040   0.950    26.15     0.00 0  0
     58 1    108.81    33.35      0.00     0.00    1 1.0067999   -11.18605  345.00   1   1.040   0.950    26.14     0.00 0  0
     59 1     64.32    21.27      0.00     0.00    1 1.0160076   -13.24904  345.00   1   1.040   0.950    26.15     0.00 0  0
     60 1     73.95    23.66      0.00     0.00    1 0.9751004   -20.02516  138.00   1   1.040   0.950    26.15     0.00 0  0
     61 1     89.76    24.84      0.00     0.00    1 1.0154675   -15.35439  230.00   1   1.040   0.950    26.15     0.00 0  0
     62 1     83.59    22.55      0.00     0.00    1 1.0025746   -11.87131  345.00   1   1.040   0.950    26.14     0.00 0  0
     63 1     62.36    20.42      0.00     0.00    1 0.9713687   -21.21485  138.00   1   1.040   0.950    26.15     0.00 0  0
     64 1    141.69    39.50      0.00     0.00    1 0.9852267   -16.16670  138.00   1   1.040   0.950    26.15     0.00 0  0
     65 1     52.65    17.54      0.00     0.00    1 1.0059245   -16.98540  138.00   1   1.040   0.950    26.15     0.00 0  0
     66 1     61.81    19.59      0.00     0.00    1 1.0094510   -10.90605  345.00   1   1.040   0.950    26.14     0.00 0  0
     67 1     75.38    19.76      0.00     0.00    1 0.9919824   -21.88815  138.00   1   1.040   0.950    26.15     0.00 0  0
     68 1     92.37    28.51      0.00     0.00    1 0.9995337   -20.76561  138.00   1   1.040   0.950    26.15     0.00 0  0
     69 2     48.36    16.18      0.00     0.00    1 1.0200000    -3.90950  345.00   1   1.060   1.000    26.13     0.00 0  0
     70 1     71.15    20.44      0.00     0.00    1 1.0135190    -6.59226  138.00   1   1.040   0.950    26.14     0.00 0  0
     71 1     54.29    17.21      0.00     0.00    1 1.0135843   -10.36487  345.00   1   1.040   0.950    26.14     0.00 0  0
     72 2     47.68    17.10      0.00     0.00    1 1.0013968   -21.67546  138.00   1   1.060   1.000    26.15     0.00 0  0
     73 1     58.60    17.71      0.00     0.00    1 0.9995720   -21.75640  138.00   1   1.040   0.950    26.15     0.00 0  0
     74 1     64.48    22.37      0.00     0.00    1 1.0067189   -18.28546  345.00   1   1.040   0.950    26.16     0.00 0  0
     75 1     69.35    24.45      0.00     0.00    1 0.9891864   -20.12856  138.00   1   1.040   0.950    26.15     0.00 0  0
     76 2     96.35    26.75      0.00     0.00    1 1.0200000    -9.47546  345.00   1   1.060   1.000    26.14     0.00 0  0
     77 1     67.48    19.27      0.00     0.00    1 0.9966472   -40.21743  138.00   1   1.040   0.950    27.01     0.00 0  0
     78 2     84.02    22.44      0.00     0.00    1 1.0658678   -42.07682  345.00   1   1.060   1.000    26.84     0.00 0  0
     79 1    114.31    31.27      0.00     0.00    1 1.1115312   -48.65235  345.00   1   1.040   0.950    26.90    -0.02 0  0
     80 2     90.94    21.91      0.00     0.00    1 1.0909866   -45.80282  345.00   1   1.060   1.000    26.95    -0.03 0  0
     81 1     98.24    26.90      0.00     0.00    1 1.0740062   -44.60933  345.00   1   1.040   0.950    26.96    -0.03 0  0
     82 2     66.48    18.61      0.00     0.00    1 1.0528418   -40.28501  345.00   1   1.060   1.000    26.97    -0.02 0  0
     83 1     69.86    22.83      0.00     0.00    1 1.0368280   -39.99368  345.00   1   1.040   0.950    26.99    -0.02 0  0
     84 2     52.31    16.36      0.00     0.00    1 1.0176998   -38.99084  138.00   1   1.060   1.000    27.00    -0.01 0  0
     85 1     58.66    14.98      0.00     0.00    1 0.9940618   -37.32349  230.00   1   1.040   0.950    26.84     0.01 0  0
     86 1     94.38    23.85      0.00     0.00    1 0.9910462   -36.24843  138.00   1   1.040   0.950    27.08    -0.00 0  0
     87 1    107.02    29.16      0.00     0.00    1 1.1215462   -49.05414  345.00   1   1.040   0.950    26.92    -0.03 0  0
     88 1     83.52    21.54      0.00     0.00    1 1.0131204   -35.97844  138.00   1   1.040   0.950    27.06    -0.00 0  0
     89 1     64.50    20.33      0.00     0.00    1 0.9642232   -43.86870  138.00   1   1.040   0.950    27.03     0.01 0  0
     90 1     56.13    16.64      0.00     0.00    1 0.9984035    -9.01422  230.00   1   1.040   0.950    26.09    -0.00 0  0
     91 1     70.06    19.28      0.00     0.00    1 0.9875635   -10.51178  230.00   1   1.040   0.950    26.09    -0.00 0  0
     92 1     65.34    20.01      0.00     0.00    1 0.9930153   -11.23856  345.00   1   1.040   0.950    26.08    -0.00 0  0
     93 1     74.30    21.78      0.00     0.00    1 0.9940706   -12.56720  345.00   1   1.040   0.950    26.08    -0.00 0  0
     94 1     93.65    26.81      0.00     0.00    1 0.9988038   -18.28805  138.00   1   1.040   0.950    26.06    -0.00 0  0
     95 1     84.01    25.67      0.00     0.00    1 0.9896591   -17.70918  138.00   1   1.040   0.950    26.07    -0.01 0  0
     96 1     97.55    24.42      0.00     0.00    1 0.9908740   -17.32120  138.00   1   1.040   0.950    26.07    -0.01 0  0
     97 1     96.28    20.41      0.00     0.00    1 1.0006914   -14.78792  345.00   1   1.040   0.950    26.09    -0.00 0  0
     98 1     99.52    30.68      0.00     0.00    1 1.0122762   -14.93392  345.00   1   1.040   0.950    26.12     0.00 0  0
     99 1     95.46    19.78      0.00     0.00    1 0.9915952   -16.61550  345.00   1   1.040   0.950    26.06    -0.01 0  0
    100 1     72.57    21.13      0.00     0.00    1 0.9850519    -8.38038  138.00   1   1.040   0.950    26.09    -0.01 0  0
    101 1     68.73    19.33      0.00     0.00    1 0.9919821   -12.87438  345.00   1   1.040   0.950    26.08    -0.00 0  0
    102 1     44.06    15.87      0.00     0.00    1 0.9895230   -18.92859  138.00   1   1.040   0.950    26.05    -0.01 0  0
    103 2    111.42    33.43      0.00     0.00    1 1.0200000   -16.53406  138.00   1   1.060   1.000    26.06     0.00 0  0
    104 1     80.05    19.49      0.00     0.00    1 0.9803557   -19.58349  138.00   1   1.040   0.950    26.02    -0.01 0  0
    105 1     58.66    16.28      0.00     0.00    1 0.9894043   -18.25679  138.00   1   1.040   0.950    26.02    -0.00 0  0
    106 1     58.38    19.86      0.00     0.00    1 0.9725413   -21.38007  138.00   1   1.040   0.950    26.18     0.00 0  0
    107 1     69.53    18.25      0.00     0.00    1 0.9748017   -20.72837  138.00   1   1.040   0.950    26.07    -0.01 0  0
    108 1    118.15    28.64      0.00     0.00    1 0.9782277   -20.15480  230.00   1   1.040   0.950    25.99    -0.03 0  0
    109 1     85.98    26.36      0.00     0.00    1 0.9645598   -23.46517  138.00   1   1.040   0.950    26.47    -0.04 0  0
    110 1     45.25    14.81      0.00     0.00    1 0.9903629   -17.58280  138.00   1   1.040   0.950    26.02    -0.00 0  0
    111 1     83.39    22.02      0.00     0.00    1 0.9840682   -18.76683  345.00   1   1.040   0.950    26.10    -0.01 0  0
    112 1    114.23    28.77      0.00     0.00    1 0.9689472   -22.18858  138.00   1   1.040   0.950    26.03    -0.01 0  0
    113 1     43.73    13.37      0.00     0.00    1 0.9620785   -22.90424  138.00   1   1.040   0.950    26.02    -0.00 0  0
    114 1     45.96    15.85      0.00     0.00    1 0.9872935   -18.81005  138.00   1   1.040   0.950    26.04    -0.01 0  0
    115 1     52.25    14.81      0.00     0.00    1 0.9956961   -10.84959  345.00   1   1.040   0.950    26.08    -0.00 0  0
    116 1    102.65    25.21      0.00     0.00    1 0.9771224   -22.85184  230.00   1   1.040   0.950    26.38    -0.00 0  0
    117 1     76.73    21.24      0.00     0.00    1 0.9870339   -23.16848  138.00   1   1.040   0.950    26.29     0.00 0  0
    118 1     45.12    14.35      0.00     0.00    1 0.9859143   -19.06721  138.00   1   1.040   0.950    26.00     0.00 0  0
    119 1     97.15    24.41      0.00     0.00    1 0.9799530   -20.10781  138.00   1   1.040   0.950    26.02     0.01 0  0
    120 2     58.62    17.43      0.00     0.00    1 0.9747256   -22.52462  230.00   1   1.040   0.950    26.44    -0.01 0  0
    121 1     72.10    19.54      0.00     0.00    1 0.9707745   -22.96307  230.00   1   1.040   0.950    26.44    -0.01 0  0
    122 1     58.71    15.51      0.00     0.00    1 0.9705044   -24.27912  138.00   1   1.040   0.950    26.36    -0.00 0  0
    123 1     87.96    19.33      0.00     0.00    1 0.9857041   -22.31826  230.00   1   1.040   0.950    26.35     0.01 0  0
    124 1     89.25    24.01      0.00     0.00    1 0.9724771   -24.43240  230.00   1   1.040   0.950    26.33     0.03 0  0
    125 1     93.23    27.94      0.00     0.00    1 0.9816772   -21.03074  138.00   1   1.040   0.950    26.10    -0.01 0  0
    126 1     76.96    23.31      0.00     0.00    1 0.9697328   -24.11392  230.00   1   1.040   0.950    26.53    -0.01 0  0
    127 1     89.27    23.29      0.00     0.00    1 0.9729133   -24.80285  230.00   1   1.040   0.950    26.45     0.01 0  0
    128 2     97.28    22.52      0.00     0.00    1 1.0200000   -13.41570  138.00   1   1.060   1.000    26.14     0.00 0  0
    129 1     72.06    20.04      0.00     0.00    1 0.9795006   -20.96139  138.00   1   1.040   0.950    26.11    -0.00 0  0
    130 2     78.30    24.38      0.00     0.00    1 1.0200000   -16.06776  138.00   1   1.060   1.000    26.12     0.00 0  0
    131 1    108.82    22.55      0.00     0.00    1 0.9724207   -22.10319  138.00   1   1.040   0.950    26.06    -0.01 0  0
    132 1    100.32    23.12      0.00     0.00    1 0.9887088   -21.47549  230.00   1   1.040   0.950    26.20     0.01 0  0
    133 1     63.08    17.45      0.00     0.00    1 0.9816311   -23.14930  230.00   1   1.040   0.950    26.21     0.01 0  0
    134 1     75.30    17.03      0.00     0.00    1 0.9857420   -21.12062  230.00   1   1.040   0.950    26.17     0.01 0  0
    135 1     54.24    17.70      0.00     0.00    1 1.0039596   -17.51389  345.00   1   1.040   0.950    26.12     0.00 0  0
    136 1     67.54    18.97      0.00     0.00    1 0.9836583   -19.18216  138.00   1   1.040   0.950    26.02    -0.01 0  0
    137 1     53.39    18.73      0.00     0.00    1 1.0095889   -16.44051  345.00   1   1.040   0.950    26.12     0.00 0  0
    138 1     94.97    20.57      0.00     0.00    1 0.9883324   -17.30874  345.00   1   1.040   0.950    26.05    -0.01 0  0
    139 1     81.09    23.99      0.00     0.00    1 1.0267140   -23.28222  345.00   1   1.040   0.950    26.25     0.01 0  0
    140 1    109.00    28.06      0.00     0.00    1 0.9940724    -7.17639  138.00   1   1.040   0.950    26.09    -0.01 0  0
    141 2     97.98    26.50      0.00     0.00    1 1.0136893    -3.96663  345.00   1   1.060   1.000    26.08    -0.01 0  0
    142 1     63.62    21.90      0.00     0.00    1 0.9770888   -23.69420  230.00   1   1.040   0.950    26.29     0.03 0  0
    143 2     93.07    24.29      0.00     0.00    1 1.0200000   -15.55990  230.00   1   1.060   1.000    26.15     0.00 0  0
    144 1    111.42    28.30      0.00     0.00    1 1.0127780   -16.66558  230.00   1   1.040   0.950    26.15     0.00 0  0
    145 1     85.56    25.80      0.00     0.00    1 0.9962596   -17.01977  138.00   1   1.040   0.950    26.16     0.00 0  0
    146 2     91.37    22.43      0.00     0.00    1 1.0134715   -15.78651  345.00   1   1.060   1.000    26.12     0.00 0  0
    147 1     55.46    18.35      0.00     0.00    1 0.9784069   -20.35310  138.00   1   1.040   0.950    25.97    -0.00 0  0
    148 1     65.63    18.50      0.00     0.00    1 0.9948422   -12.04556  345.00   1   1.040   0.950    26.08    -0.00 0  0
    149 2    114.29    28.76      0.00     0.00    1 1.0200000   -14.99870  138.00   1   1.060   1.000    26.16     0.00 0  0
    150 1     80.90    23.66      0.00     0.00    1 0.9919658   -21.38890  345.00   1   1.040   0.950    26.16     0.00 0  0
    151 1     67.55    19.35      0.00     0.00    1 1.0109431   -16.27684  345.00   1   1.040   0.950    26.12     0.00 0  0
    152 1     54.24    15.59      0.00     0.00    1 0.9672438   -22.27354  138.00   1   1.040   0.950    26.02    -0.00 0  0
    153 1     62.96    18.57      0.00     0.00    1 1.0012758   -17.99438  345.00   1   1.040   0.950    26.12     0.00 0  0
    154 1     78.33    20.65      0.00     0.00    1 0.9916023   -32.32447  230.00   1   1.040   0.950    26.63     0.02 0  0
    155 1     75.40    20.99      0.00     0.00    1 0.9779465   -32.69558  138.00   1   1.040   0.950    27.10     0.01 0  0
    156 1     77.49    21.16      0.00     0.00    1 1.0027747   -27.32006  345.00   1   1.040   0.950    27.25    -0.00 0  0
    157 2     77.46    21.67      0.00     0.00    1 1.0200000   -23.40134  138.00   1   1.060   1.000    26.63     0.00 0  0
    158 1     77.29    21.84      0.00     0.00    1 0.9946932   -26.32997  138.00   1   1.040   0.950    26.43     0.00 0  0
    159 1     81.20    24.36      0.00     0.00    1 1.0091778   -27.92323  345.00   1   1.040   0.950    26.40     0.02 0  0
    160 1     98.56    31.33      0.00     0.00    1 0.9803174   -33.31629  230.00   1   1.040   0.950    26.54     0.03 0  0
    161 1     49.67    16.24      0.00     0.00    1 0.9984302   -27.14982  138.00   1   1.040   0.950    26.48     0.01 0  0
    162 2     72.77    18.65      0.00     0.00    1 1.0200000   -20.64652  345.00   1   1.060   1.000    26.25     0.00 0  0
    163 1     93.57    24.14      0.00     0.00    1 1.0050700   -24.51808  230.00   1   1.040   0.950    26.42     0.02 0  0
    164 1     68.52    23.85      0.00     0.00    1 0.9827989   -24.78817  138.00   1   1.040   0.950    26.36    -0.01 0  0
    165 2     74.35    22.04      0.00     0.00    1 1.0200000   -17.95327  230.00   1   1.060   1.000    26.23     0.00 0  0
    166 2     69.52    19.70      0.00     0.00    1 1.0200000   -22.87978  138.00   1   1.060   1.000    26.43     0.00 0  0
    167 1     69.73    19.25      0.00     0.00    1 1.0527577   -40.78538  345.00   1   1.040   0.950    26.82     0.01 0  0
    168 1     45.07    14.63      0.00     0.00    1 0.9787395   -25.06098  230.00   1   1.040   0.950    26.22     0.01 0  0
    169 1     73.00    20.67      0.00     0.00    1 0.9949874   -29.42988  138.00   1   1.040   0.950    27.10     0.00 0  0
    170 1     80.30    24.75      0.00     0.00    1 0.9656609   -10.07812  138.00   1   1.040   0.950    26.11    -0.01 0  0
    171 1     68.59    22.44      0.00     0.00    1 0.9711117    -9.71176  138.00   1   1.040   0.950    26.10    -0.00 0  0
    172 1     81.11    23.43      0.00     0.00    1 0.9879703    -7.41524  138.00   1   1.040   0.950    26.12    -0.00 0  0
    173 1     70.50    22.84      0.00     0.00    1 0.9862503    -6.98792  138.00   1   1.040   0.950    26.13    -0.00 0  0
    174 1     86.94    22.83      0.00     0.00    1 1.0150327   -11.56249  345.00   1   1.040   0.950    26.12    -0.00 0  0
    175 2     69.53    23.82      0.00     0.00    1 1.0200000   -11.04374  138.00   1   1.060   1.000    26.11     0.00 0  0
    176 2     85.42    29.14      0.00     0.00    1 1.0200000   -15.68619  345.00   1   1.060   1.000    26.12     0.00 0  0
    177 1    123.87    36.71      0.00     0.00    1 1.0121627   -12.44650  230.00   1   1.040   0.950    26.12     0.00 0  0
    178 1     64.26    19.09      0.00     0.00    1 0.9997451   -15.21227  138.00   1   1.040   0.950    26.12    -0.00 0  0
    179 1      6.08     1.67      0.00     0.00    1 0.9990191   -15.26689  138.00   1   1.040   0.950    26.12    -0.00 0  0
    180 1      9.18     2.71      0.00     0.00    1 1.0150756   -11.60872  345.00   1   1.040   0.950    26.12    -0.00 0  0
    181 1      0.00     0.00      0.00     0.00    1 1.0338837   -15.69890  345.00   1   1.040   0.950    26.21     0.00 0  0
    182 1      0.00     0.00      0.00     0.00    1 1.0083082   -18.07881  345.00   1   1.040   0.950    26.16     0.00 0  0
    183 1      0.00     0.00      0.00     0.00    1 1.0134642   -17.85699  345.00   1   1.040   0.950    26.15     0.00 0  0
    184 1      0.00     0.00      0.00     0.00    1 1.0126033   -12.62623  230.00   1   1.040   0.950    26.15     0.00 0  0
    185 1      0.00     0.00      0.00     0.00    1 1.0121083   -10.00698  345.00   1   1.040   0.950    26.14     0.00 0  0
    186 1      0.00     0.00      0.00     0.00    1 1.0126294   -17.99913  345.00   1   1.040   0.950    26.15     0.00 0  0
    187 1      0.00     0.00      0.00     0.00    1 1.0209390   -16.19001  345.00   1   1.040   0.950    26.15     0.00 0  0
    188 1      0.00     0.00      0.00     0.00    1 1.0182790    -3.34022  345.00   1   1.040   0.950    26.13    -0.00 0  0
    189 1      0.00     0.00      0.00     0.00    1 1.0178762    -3.90766  345.00   1   1.040   0.950    26.13    -0.00 0  0
    190 1      0.00     0.00      0.00     0.00    1 1.0185393    -8.70503  345.00   1   1.040   0.950    26.14    -0.00 0  0
    191 1      0.00     0.00      0.00     0.00    1 1.0185532   -12.57381  345.00   1   1.040   0.950    26.15     0.00 0  0
    192 1      0.00     0.00      0.00     0.00    1 1.0137143   -16.24250  230.00   1   1.040   0.950    26.16     0.00 0  0
    193 1      0.00     0.00      0.00     0.00    1 1.0168460   -15.61494  345.00   1   1.040   0.950    26.17     0.01 0  0
    194 1      0.00     0.00      0.00     0.00    1 1.0142490   -17.69295  345.00   1   1.040   0.950    26.20     0.02 0  0
    195 1      0.00     0.00      0.00     0.00    1 0.9848389   -19.09295  230.00   1   1.040   0.950    25.99    -0.03 0  0
    196 1      0.00     0.00      0.00     0.00    1 0.9870124   -17.66554  345.00   1   1.040   0.950    26.05    -0.01 0  0
    197 1      0.00     0.00      0.00     0.00    1 0.9937312   -19.39980  230.00   1   1.040   0.950    26.13     0.00 0  0
    198 1      0.00     0.00      0.00     0.00    1 0.9927971   -17.04136  345.00   1   1.040   0.950    26.09    -0.00 0  0
    199 1      0.00     0.00      0.00     0.00    1 0.9987248   -10.35589  345.00   1   1.040   0.950    26.08    -0.00 0  0
    200 1      0.00     0.00      0.00     0.00    1 1.0139871   -13.03045  345.00   1   1.040   0.950    26.12    -0.00 0  0
...
];

%% generator data 
mpc.gen = [
      1      3.59    -52.00     35.00    -52.00  1.0200    100.00 1    338.00      3.00     81.31   9999.90   -500.00   1500.00   -500.00   1500.00 0 0 0 0   0.0000 0 0 0 0
      3    357.01    -25.50    157.00   -141.00  1.0200    100.00 1    686.00    298.00      0.00      0.00      0.00      0.00      0.00      0.00 0 0 0 0   0.0000 0 0 0 0
      7    166.52    105.21    169.00   -138.00  1.0200    100.00 1    674.00    139.00      0.00      0.00      0.00      0.00      0.00      0.00 0 0 0 0   0.0000 0 0 0 0
      8    226.42     68.79    240.00   -125.00  1.0200    100.00 1    611.00    189.00      0.00      0.00      0.00      0.00      0.00      0.00 0 0 0 0   0.0000 0 0 0 0
     10   1866.94    109.78    594.00   -242.00  1.0200    100.00 1   2271.00   1406.00      0.00      0.00      0.00      0.00      0.00      0.00 0 0 0 0   0.0000 0 0 0 0
     24    345.03    114.00    114.00   -108.00  1.0200    100.00 1    541.00    288.00      0.00      0.00      0.00      0.00      0.00      0.00 0 0 0 0   0.0000 0 0 0 0
     26    143.76    -33.86     81.00    -66.00  1.0200    100.00 1    300.00    120.00      0.00      0.00      0.00      0.00      0.00      0.00 0 0 0 0   0.0000 0 0 0 0
     28    258.77     67.99    181.00   -120.00  1.0200    100.00 1    592.00    216.00      0.00      0.00      0.00      0.00      0.00      0.00 0 0 0 0   0.0000 0 0 0 0
     30    149.75    -59.00     89.00    -59.00  1.0200    100.00 1    263.00    125.00      0.00      0.00      0.00      0.00      0.00      0.00 0 0 0 0   0.0000 0 0 0 0
     31      0.00      0.00    179.00   -165.00  1.0200    100.00 0    800.00    241.00      0.00      0.00      0.00      0.00      0.00      0.00 0 0 0 0   0.0000 0 0 0 0
     32    195.28      3.67    171.00   -140.00  1.0200    100.00 1    683.00    163.00      0.00      0.00      0.00      0.00      0.00      0.00 0 0 0 0   0.0000 0 0 0 0
     33    454.05    184.67    200.00   -134.00  1.0200    100.00 1    664.00    379.00      0.00      0.00      0.00      0.00      0.00      0.00 0 0 0 0   0.0000 0 0 0 0
     34    353.41    100.12    391.00   -136.00  1.0200    100.00 1   1237.00    295.00      0.00      0.00      0.00      0.00      0.00      0.00 0 0 0 0   0.0000 0 0 0 0
     35   1106.96    200.00    200.00   -151.00  1.0200    100.00 1   1386.00    924.00      0.00      0.00      0.00      0.00      0.00      0.00 0 0 0 0   0.0000 0 0 0 0
     36    167.72     55.50    142.00   -117.00  1.0200    100.00 1    588.00    140.00      0.00      0.00      0.00      0.00      0.00      0.00 0 0 0 0   0.0000 0 0 0 0
     37      0.00      0.00    213.00   -116.00  1.0200    100.00 0    567.00    100.00      0.00      0.00      0.00      0.00      0.00      0.00 0 0 0 0   0.0000 0 0 0 0
     38      0.00      0.00    202.00   -178.00  1.0200    100.00 0    872.00    208.00      0.00      0.00      0.00      0.00      0.00      0.00 0 0 0 0   0.0000 0 0 0 0
     49    383.36     64.37    164.00   -129.00  1.0200    100.00 1    607.00    320.00      0.00      0.00      0.00      0.00      0.00      0.00 0 0 0 0   0.0000 0 0 0 0
     52    194.08     98.34    630.00   -166.00  1.0200    100.00 1   1642.00    162.00      0.00      0.00      0.00      0.00      0.00      0.00 0 0 0 0   0.0000 0 0 0 0
     54    249.19      5.31    198.00   -113.00  1.0200    100.00 1    546.00    208.00      0.00      0.00      0.00      0.00      0.00      0.00 0 0 0 0   0.0000 0 0 0 0
     56    498.37    111.23    151.00   -150.00  1.0200    100.00 1    728.00    416.00      0.00      0.00      0.00      0.00      0.00      0.00 0 0 0 0   0.0000 0 0 0 0
     69    178.50     84.97    150.00   -103.00  1.0200    100.00 1    520.00    149.00      0.00      0.00      0.00      0.00      0.00      0.00 0 0 0 0   0.0000 0 0 0 0
     72    101.83     79.00     79.00    -57.00  1.0200    100.00 1    263.00     85.00      0.00      0.00      0.00      0.00      0.00      0.00 0 0 0 0   0.0000 0 0 0 0
     76    521.14    130.49    278.00   -182.00  1.0200    100.00 1    882.00    435.00      0.00      0.00      0.00      0.00      0.00      0.00 0 0 0 0   0.0000 0 0 0 0
     78    155.74    -62.00     52.00    -62.00  1.0200    100.00 1    288.00    130.00      0.00      0.00      0.00      0.00      0.00      0.00 0 0 0 0   0.0000 0 0 0 0
     80    135.38    -67.00    175.00    -67.00  1.0200    100.00 1    578.00    113.00      0.00      0.00      0.00      0.00      0.00      0.00 0 0 0 0   0.0000 0 0 0 0
     82    210.85    -58.00    119.00    -58.00  1.0200    100.00 1    313.00    176.00      0.00      0.00      0.00      0.00      0.00      0.00 0 0 0 0   0.0000 0 0 0 0
     84      0.00      0.00    194.00   -180.00  1.0200    100.00 0    888.00    169.00      0.00      0.00      0.00      0.00      0.00      0.00 0 0 0 0   0.0000 0 0 0 0
    103    249.19    180.17    200.00   -188.00  1.0200    100.00 1    916.00    208.00      0.00      0.00      0.00      0.00      0.00      0.00 0 0 0 0   0.0000 0 0 0 0
    120      0.00      0.00    196.00   -172.00  1.0200    100.00 0    845.00    161.00      0.00      0.00      0.00      0.00      0.00      0.00 0 0 0 0   0.0000 0 0 0 0
    128    215.64     13.83    104.00    -76.00  1.0200    100.00 1    378.00    180.00      0.00      0.00      0.00      0.00      0.00      0.00 0 0 0 0   0.0000 0 0 0 0
    130    137.77     83.29     87.00    -56.00  1.0200    100.00 1    267.00    115.00      0.00      0.00      0.00      0.00      0.00      0.00 0 0 0 0   0.0000 0 0 0 0
    141   1050.66    200.00    200.00   -174.00  1.0200    100.00 1   1691.00    877.00      0.00      0.00      0.00      0.00      0.00      0.00 0 0 0 0   0.0000 0 0 0 0
    143    185.69     80.67     99.00    -60.00  1.0200    100.00 1    303.00    155.00      0.00      0.00      0.00      0.00      0.00      0.00 0 0 0 0   0.0000 0 0 0 0
    146    359.40    137.00    137.00   -122.00  1.0200    100.00 1    607.00    300.00      0.00      0.00      0.00      0.00      0.00      0.00 0 0 0 0   0.0000 0 0 0 0
    149    222.83     39.26     73.00    -57.00  1.0200    100.00 1    274.00    186.00      0.00      0.00      0.00      0.00      0.00      0.00 0 0 0 0   0.0000 0 0 0 0
    157    345.03     75.98    173.00   -110.00  1.0200    100.00 1    521.00    288.00      0.00      0.00      0.00      0.00      0.00      0.00 0 0 0 0   0.0000 0 0 0 0
    162    275.54    113.77    176.00   -130.00  1.0200    100.00 1    636.00    230.00      0.00      0.00      0.00      0.00      0.00      0.00 0 0 0 0   0.0000 0 0 0 0
    165    936.85    155.24    402.00   -141.00  1.0200    100.00 1   1304.00    782.00      0.00      0.00      0.00      0.00      0.00      0.00 0 0 0 0   0.0000 0 0 0 0
    166    331.85     94.64    202.00   -168.00  1.0200    100.00 1    830.00    277.00      0.00      0.00      0.00      0.00      0.00      0.00 0 0 0 0   0.0000 0 0 0 0
    175    250.38     42.51    233.00   -128.00  1.0200    100.00 1    626.00    209.00      0.00      0.00      0.00      0.00      0.00      0.00 0 0 0 0   0.0000 0 0 0 0
    176    103.03     62.78     86.00    -56.00  1.0200    100.00 1    267.00     86.00      0.00      0.00      0.00      0.00      0.00      0.00 0 0 0 0   0.0000 0 0 0 0
];

%% generator cost data
mpc.gencost = [
2 0 0 4   0.0000    0.001   17.500   450.00
2 0 0 4   0.0000    0.001   24.757  1505.67
2 0 0 4   0.0000    0.002   24.400  3342.77
2 0 0 4   0.0000    0.005   30.562  1114.42
2 0 0 4   0.0000    0.001   25.697  6313.07
2 0 0 4   0.0000    0.002   27.100  1297.89
2 0 0 4   0.0000    0.005   27.249   783.88
2 0 0 4   0.0000    0.002   26.174  1372.76
2 0 0 4   0.0000    0.006   26.053   655.13
2 0 0 4   0.0000    0.002   29.298  3418.85
2 0 0 4   0.0000    0.002   29.135  1458.22
2 0 0 4   0.0000    0.001   23.899  4734.80
2 0 0 4   0.0000    0.004   29.960  3677.05
2 0 0 4   0.0000    0.001   26.605  6691.85
2 0 0 4   0.0000    0.002   26.400  3342.77
2 0 0 4   0.0000    0.004   52.785  7415.02
2 0 0 4   0.0000    0.003   27.114  3844.19
2 0 0 4   0.0000    0.002   25.878  1390.96
2 0 0 4   0.0000    0.003   21.871  2841.36
2 0 0 4   0.0000    0.002   26.558  1284.25
2 0 0 4   0.0000    0.001   24.540  1581.44
2 0 0 4   0.0000    0.002   25.780  3523.95
2 0 0 4   0.0000    0.003   22.330  2325.41
2 0 0 4   0.0000    0.001   25.323  1978.07
2 0 0 4   0.0000    0.005   26.473   732.25
2 0 0 4   0.0000    0.002   26.356  1347.98
2 0 0 4   0.0000    0.008   27.364   550.89
2 0 0 4   0.0000    0.004   31.864  3610.20
2 0 0 4   0.0000    0.001   25.117  2036.75
2 0 0 4   0.0000    0.004   32.314  3777.33
2 0 0 4   0.0000    0.004   26.167   947.57
2 0 0 4   0.0000    0.006   27.791   710.04
2 0 0 4   0.0000    0.003   27.697  4313.07
2 0 0 4   0.0000    0.005   26.616   773.70
2 0 0 4   0.0000    0.002   26.010  1398.04
2 0 0 4   0.0000    0.006   27.475   721.30
2 0 0 4   0.0000    0.006   32.756  1215.71
2 0 0 4   0.0000    0.002   25.916  1460.47
2 0 0 4   0.0000    0.001   26.918  6534.03
2 0 0 4   0.0000    0.001   25.325  1860.51
2 0 0 4   0.0000    0.002   25.962  1438.95
2 0 0 4   0.0000    0.006   27.924   713.43
];

%% branch data
mpc.branch = [
      1       2  0.005978  0.120624   1.98515    414.51    414.51    414.51 1.00000    0.000 1    0.00    0.00      3.59    -52.00     -3.35   -171.02 0 0 0 0
      2      30  0.000000  0.018100   0.00000   1000.00   1000.00   1000.00 1.00000    0.000 1    0.00    0.00   -149.75     63.49    149.75    -59.00 0 0 0 0
      2      39  0.008680  0.060198   0.52937    530.03    530.03    530.03 1.00000    0.000 1    0.00    0.00    234.32    -29.98   -229.85      5.08 0 0 0 0
      2     139  0.003390  0.023178   0.20974    530.03    530.03    530.03 1.00000    0.000 1    0.00    0.00     81.30      3.24    -81.09    -23.99 0 0 0 0
      2     181  0.007607  0.052755   0.46393    530.03    530.03    530.03 1.00000    0.000 1    0.00    0.00   -226.03     18.46    229.81    -41.78 0 0 0 0
      2     201  0.002742  0.018748   0.16965    530.03    530.03    530.03 1.00000    0.000 1    0.00    0.00    -22.06     90.65     22.33   -106.60 0 0 0 0
      3      18  0.003829  0.158129   0.09685    316.20    316.20    316.20 1.00000    0.000 1    0.00    0.00     78.19     16.49    -77.95    -16.29 0 0 0 0
      3     181  0.000638  0.030000   0.00000    400.00    400.00    400.00 1.00000    0.000 1    0.00    0.00    278.82    -41.99   -278.33     64.92 0 0 0 0
      4      75  0.016845  0.038117   0.00951    107.32    107.32    107.32 1.00000    0.000 1    0.00    0.00     17.62     10.62    -17.55    -11.39 0 0 0 0
      4     182  0.000889  0.040000   0.00000    300.00    300.00    300.00 1.00000    0.000 1    0.00    0.00    -78.08    -26.74     78.14     29.48 0 0 0 0
      5       8  0.002959  0.039331   0.08406    578.83    578.83    578.83 1.00000    0.000 1    0.00    0.00   -122.57    -44.29    123.07     42.27 0 0 0 0
      5     183  0.001261  0.046667   0.00000    150.00    150.00    150.00 1.00000    0.000 1    0.00    0.00      6.71    -30.06     -6.70     30.50 0 0 0 0
      5     184  0.045023  0.111012   0.17939    178.87    178.87    178.87 1.00000    0.000 1    0.00    0.00    -71.56     11.79     74.06    -23.77 0 0 0 0
      5     207  0.001124  0.013276   0.03027    541.39    541.39    541.39 1.00000    0.000 1    0.00    0.00    121.30     39.99   -121.12    -40.81 0 0 0 0
      6       7  0.062002  0.145750   0.03365    107.32    107.32    107.32 1.00000    0.000 1    0.00    0.00     51.61    -28.39    -49.56     29.75 0 0 0 0
      6      31  0.000000  0.025000   0.00000   1100.00   1100.00   1100.00 1.00000    0.000 1    0.00    0.00      0.00      0.00      0.00      0.00 0 0 0 0
      6      70  0.033638  0.077688   0.01859    107.32    107.32    107.32 1.00000    0.000 1    0.00    0.00   -100.03     42.02    103.95    -34.88 0 0 0 0
      6     184  0.000297  0.014545   0.00000    550.00    550.00    550.00 1.00000    0.000 1    0.00    0.00    105.38    -25.48   -105.35     27.15 0 0 0 0
      6     185  0.000556  0.026667   0.00000    450.00    450.00    450.00 1.00000    0.000 1    0.00    0.00   -117.48     -7.04    117.55     10.67 0 0 0 0
      7     186  0.000336  0.017143   0.00000    700.00    700.00    700.00 1.00000    0.000 1    0.00    0.00    118.81     42.68   -118.75    -40.05 0 0 0 0
      8      54  0.000326  0.005080   0.01216    665.28    665.28    665.28 1.00000    0.000 1    0.00    0.00   -195.69     12.89    195.81    -12.27 0 0 0 0
      8     187  0.000196  0.010000   0.00000    700.00    700.00    700.00 1.00000    0.000 1    0.00    0.00    213.36    -11.57   -213.27     15.96 0 0 0 0
    187       9  0.006838  0.047422   0.41703    530.03    530.03    530.03 1.00000    0.000 1    0.00    0.00      0.03    -43.68      0.00      0.00 0 0 0 0
     10      11  0.000315  0.008557   0.00495    566.01    566.01    566.01 1.00000    0.000 1    0.00    0.00    208.40     19.95   -208.26    -16.86 0 0 0 0
     10      32  0.000000  0.020000   0.00000   1000.00   1000.00   1000.00 1.00000    0.000 1    0.00    0.00   -195.28      3.67    195.28      3.67 0 0 0 0
     10      70  0.005799  0.067267   0.02063    324.83    324.83    324.83 1.00000    0.000 1    0.00    0.00    176.84      3.67   -175.10     14.43 0 0 0 0
     10     188  0.000073  0.003750   0.00000   3200.00   3200.00   3200.00 1.00000    0.000 1    0.00    0.00   1614.99     62.21  -1613.15     31.94 0 0 0 0
     12      11  0.001279  0.043500   0.00000    100.00    100.00    100.00 1.00000    0.000 1    0.00    0.00    -32.91      0.34     32.93      0.11 0 0 0 0
     11     173  0.016673  0.124076   0.03486    237.35    237.35    237.35 1.00000    0.000 1    0.00    0.00     87.17     16.81    -85.89    -10.80 0 0 0 0
     11     189  0.001500  0.060000   0.00000    200.00    200.00    200.00 1.00000    0.000 1    0.00    0.00     88.17     -0.07    -88.06      4.57 0 0 0 0
     12      13  0.003529  0.120000   0.00000    100.00    100.00    100.00 1.00000    0.000 1    0.00    0.00     31.06     -0.90    -31.03      2.02 0 0 0 0
    188      13  0.000109  0.001949   0.02003   1045.73   1045.73   1045.73 1.00000    0.000 1    0.00    0.00    460.35    -14.82   -460.13     16.74 0 0 0 0
     13     190  0.000846  0.017908   0.26779   1060.07   1060.07   1060.07 1.00000    0.000 1    0.00    0.00    491.16    -18.76   -489.19     32.67 0 0 0 0
     14      15  0.036111  0.089040   0.14388    178.87    178.87    178.87 1.00000    0.000 1    0.00    0.00     74.17    -25.58    -72.14     15.75 0 0 0 0
     14     177  0.018818  0.067761   0.11459    229.46    229.46    229.46 1.00000    0.000 1    0.00    0.00     60.64    -10.94    -59.97      1.53 0 0 0 0
     14     190  0.000233  0.011667   0.00000    600.00    600.00    600.00 1.00000    0.000 1    0.00    0.00   -218.15     12.86    218.26     -7.50 0 0 0 0
     15      61  0.004135  0.027504   0.05200    353.36    353.36    353.36 1.00000    0.000 1    0.00    0.00     74.62    -28.52    -74.37     24.86 0 0 0 0
    184      15  0.003431  0.042042   0.08894    541.39    541.39    541.39 1.00000    0.000 1    0.00    0.00     64.65     -5.74    -64.51     -1.65 0 0 0 0
     15     191  0.002059  0.070000   0.00000    100.00    100.00    100.00 1.00000    0.000 1    0.00    0.00    -40.72     -8.78     40.76      9.97 0 0 0 0
     16     149  0.014227  0.046950   0.01231    137.68    137.68    137.68 1.00000    0.000 1    0.00    0.00    -64.49     -2.66     65.08      3.31 0 0 0 0
     16     192  0.001000  0.040000   0.00000    200.00    200.00    200.00 1.00000    0.000 1    0.00    0.00    -19.23    -10.00     19.24     10.19 0 0 0 0
     16     193  0.001116  0.048000   0.00000    250.00    250.00    250.00 1.00000    0.000 1    0.00    0.00    -39.62    -14.10     39.64     14.93 0 0 0 0
     17      18  0.056699  0.194499   0.04709    137.68    137.68    137.68 1.00000    0.000 1    0.00    0.00     -6.40      0.08      6.43     -4.62 0 0 0 0
     17     145  0.046728  0.104525   0.02669    107.32    107.32    107.32 1.00000    0.000 1    0.00    0.00    -27.42      7.40     27.82     -9.16 0 0 0 0
     17     194  0.002162  0.080000   0.00000    150.00    150.00    150.00 1.00000    0.000 1    0.00    0.00    -27.61    -26.59     27.64     27.78 0 0 0 0
     19      20  0.000426  0.020000   0.00000    400.00    400.00    400.00 1.00000    0.000 1    0.00    0.00   -222.54    -31.06    222.76     41.24 0 0 0 0
     19      33  0.000700  0.014200   0.00000   1000.00   1000.00   1000.00 1.00000    0.000 1    0.00    0.00   -353.32   -141.08    354.34    161.79 0 0 0 0
     19      96  0.055097  0.129519   0.02990    107.32    107.32    107.32 1.00000    0.000 1    0.00    0.00      5.07      0.48     -5.05     -3.39 0 0 0 0
     19     105  0.000528  0.012761   0.00724    522.03    522.03    522.03 1.00000    0.000 1    0.00    0.00    171.03     47.55   -170.86    -44.21 0 0 0 0
     19     110  0.005086  0.023707   0.00609    173.53    173.53    173.53 1.00000    0.000 1    0.00    0.00     45.36     14.76    -45.25    -14.81 0 0 0 0
     19     118  0.000642  0.013449   0.00755    474.70    474.70    474.70 1.00000    0.000 1    0.00    0.00    266.35     67.93   -265.86    -58.43 0 0 0 0
     19     175  0.056202  0.251624   0.07017    173.53    173.53    173.53 1.00000    0.000 1    0.00    0.00    -41.47     -1.45     42.45     -1.31 0 0 0 0
     19     195  0.002353  0.080000   0.00000    100.00    100.00    100.00 1.00000    0.000 1    0.00    0.00     45.13     13.65    -45.08    -11.86 0 0 0 0
     19     196  0.003529  0.120000   0.00000    100.00    100.00    100.00 1.00000    0.000 1    0.00    0.00      9.70      7.41     -9.69     -7.23 0 0 0 0
     20      34  0.000900  0.018000   0.00000    600.00    600.00    600.00 1.00000    0.000 1    0.00    0.00   -294.75    -64.91    295.56     81.16 0 0 0 0
     21     129  0.006980  0.035005   0.01005    187.39    187.39    187.39 1.00000    0.000 1    0.00    0.00     72.84     16.24    -72.44    -15.22 0 0 0 0
     21     130  0.007383  0.060698   0.01884    261.01    261.01    261.01 1.00000    0.000 1    0.00    0.00   -104.31    -33.76    105.21     39.26 0 0 0 0
     21     197  0.001441  0.053333   0.00000    150.00    150.00    150.00 1.00000    0.000 1    0.00    0.00     -4.17     -6.36      4.17      6.39 0 0 0 0
     21     198  0.001500  0.060000   0.00000    200.00    200.00    200.00 1.00000    0.000 1    0.00    0.00    -71.00     -0.90     71.07      3.99 0 0 0 0
     22      23  0.013985  0.034482   0.05572    178.87    178.87    178.87 1.00000    0.000 1    0.00    0.00     68.82    -42.75    -67.94     39.32 0 0 0 0
     22      35  0.000000  0.014300   0.00000   1950.00   1950.00   1950.00 1.00000    0.000 1    0.00    0.00  -1106.96    -24.96   1106.96    200.00 0 0 0 0
     22     199  0.000131  0.006667   0.00000   1050.00   1050.00   1050.00 1.00000    0.000 1    0.00    0.00    943.69     42.05   -942.52     17.35 0 0 0 0
     23      24  0.043009  0.106048   0.17137    178.87    178.87    178.87 1.00000    0.000 1    0.00    0.00     39.18    -36.92    -38.18     21.79 0 0 0 0
     23      36  0.000500  0.027200   0.00000   1000.00   1000.00   1000.00 1.00000    0.000 1    0.00    0.00   -167.57    -47.34    167.72     55.50 0 0 0 0
     23      90  0.006901  0.020365   0.03648    206.75    206.75    206.75 1.00000    0.000 1    0.00    0.00     56.36     13.67    -56.13    -16.64 0 0 0 0
     23      91  0.012793  0.054395   0.09557    262.53    262.53    262.53 1.00000    0.000 1    0.00    0.00     70.73     12.65    -70.06    -19.28 0 0 0 0
     24     177  0.002078  0.014281   0.02528    353.36    353.36    353.36 1.00000    0.000 1    0.00    0.00    134.46     34.84   -134.08    -34.79 0 0 0 0
     24     200  0.000372  0.017500   0.00000    400.00    400.00    400.00 1.00000    0.000 1    0.00    0.00    166.52     32.69   -166.42    -27.84 0 0 0 0
     25      37  0.000600  0.023200   0.00000   1000.00   1000.00   1000.00 1.00000    0.000 1    0.00    0.00      0.00      0.00      0.00      0.00 0 0 0 0
     25     133  0.006133  0.048676   0.09258    395.58    395.58    395.58 1.00000    0.000 1    0.00    0.00    -25.71     20.98     25.79    -29.35 0 0 0 0
     25     168  0.018164  0.045274   0.07160    178.87    178.87    178.87 1.00000    0.000 1    0.00    0.00     45.48      8.70    -45.07    -14.63 0 0 0 0
     25     201  0.001261  0.046667   0.00000    150.00    150.00    150.00 1.00000    0.000 1    0.00    0.00    -78.90    -44.34     79.00     48.22 0 0 0 0
     26      42  0.007136  0.049490   0.43522    530.03    530.03    530.03 1.00000    0.000 1    0.00    0.00    178.88    -70.21   -176.53     40.58 0 0 0 0
     26      43  0.001333  0.009112   0.08245    530.03    530.03    530.03 1.00000    0.000 1    0.00    0.00     -6.30     16.70      6.30    -25.22 0 0 0 0
     26     202  0.010447  0.072454   0.63716    530.03    530.03    530.03 1.00000    0.000 1    0.00    0.00    -99.99      0.09    101.11    -57.96 0 0 0 0
     27     160  0.022175  0.054676   0.08835    178.87    178.87    178.87 1.00000    0.000 1    0.00    0.00     69.29      7.21    -68.20    -13.19 0 0 0 0
     27     202  0.000519  0.023333   0.00000    300.00    300.00    300.00 1.00000    0.000 1    0.00    0.00   -138.70    -29.06    138.81     33.73 0 0 0 0
     28      77  0.066564  0.156472   0.03612    107.32    107.32    107.32 1.00000    0.000 1    0.00    0.00     55.00     -7.51    -53.04      8.44 0 0 0 0
     28      88  0.001156  0.018601   0.00608    418.29    418.29    418.29 1.00000    0.000 1    0.00    0.00     82.48     32.86    -82.39    -32.08 0 0 0 0
     28     203  0.005926  0.160000   0.00000     50.00     50.00     50.00 1.00000    0.000 1    0.00    0.00     13.95      4.45    -13.94     -4.12 0 0 0 0
     28     204  0.003529  0.120000   0.00000    100.00    100.00    100.00 1.00000    0.000 1    0.00    0.00     -4.45      3.84      4.45     -3.80 0 0 0 0
     29      38  0.000800  0.015600   0.00000   1200.00   1200.00   1200.00 1.00000    0.000 1    0.00    0.00      0.00      0.00      0.00      0.00 0 0 0 0
     29      84  0.009549  0.091679   0.02681    283.00    283.00    283.00 1.00000    0.000 1    0.00    0.00     -3.14    -11.79      3.15      9.15 0 0 0 0
     29     205  0.000209  0.010667   0.00000    750.00    750.00    750.00 1.00000    0.000 1    0.00    0.00    -63.33     -3.83     63.33      4.25 0 0 0 0
     39      43  0.005771  0.040026   0.35199    530.03    530.03    530.03 1.00000    0.000 1    0.00    0.00    164.19    -24.65   -162.70     -1.69 0 0 0 0
     40      43  0.003602  0.023140   0.23770    530.03    530.03    530.03 1.00000    0.000 1    0.00    0.00    -67.14    -20.30     67.30     -3.20 0 0 0 0
    202      41  0.002711  0.018804   0.16536    530.03    530.03    530.03 1.00000    0.000 1    0.00    0.00     90.38      7.67    -90.16    -22.87 0 0 0 0
     42     167  0.006872  0.049342   0.40438    530.03    530.03    530.03 1.00000    0.000 1    0.00    0.00     75.45    -68.91    -74.94     28.51 0 0 0 0
     44      55  0.007424  0.027027   0.04470    229.46    229.46    229.46 1.00000    0.000 1    0.00    0.00    -31.24      8.38     31.32    -12.68 0 0 0 0
     44     206  0.000372  0.017500   0.00000    400.00    400.00    400.00 1.00000    0.000 1    0.00    0.00    -25.54    -27.78     25.55     28.02 0 0 0 0
     45      52  0.000887  0.008362   0.07659    652.53    652.53    652.53 1.00000    0.000 1    0.00    0.00    -45.46    -31.25     45.48     23.53 0 0 0 0
    206      45  0.000420  0.002856   0.02611    530.03    530.03    530.03 1.00000    0.000 1    0.00    0.00     21.95      6.40    -21.95     -9.09 0 0 0 0
     45     212  0.001035  0.009761   0.08940    652.53    652.53    652.53 1.00000    0.000 1    0.00    0.00    -18.58     16.27     18.59    -25.43 0 0 0 0
     46      47  0.016826  0.106284   0.02894    212.01    212.01    212.01 1.00000    0.000 1    0.00    0.00     44.31     16.58    -43.92    -16.81 0 0 0 0
     46     207  0.000370  0.017778   0.00000    450.00    450.00    450.00 1.00000    0.000 1    0.00    0.00   -121.06    -37.87    121.12     40.81 0 0 0 0
     47      63  0.038101  0.089565   0.02068    107.32    107.32    107.32 1.00000    0.000 1    0.00    0.00    -24.11     -3.35     24.36      2.00 0 0 0 0
     48     150  0.003523  0.024436   0.21489    530.03    530.03    530.03 1.00000    0.000 1    0.00    0.00     81.14      4.05    -80.90    -23.66 0 0 0 0
    182      48  0.003417  0.023699   0.20841    530.03    530.03    530.03 1.00000    0.000 1    0.00    0.00    165.68     11.41   -164.74    -25.87 0 0 0 0
     49      65  0.001800  0.037712   0.02118    474.70    474.70    474.70 1.00000    0.000 1    0.00    0.00    126.01     33.80   -125.72    -29.77 0 0 0 0
     49     208  0.001000  0.040000   0.00000    200.00    200.00    200.00 1.00000    0.000 1    0.00    0.00    104.54      5.36   -104.43     -1.15 0 0 0 0
     49     209  0.001500  0.060000   0.00000    200.00    200.00    200.00 1.00000    0.000 1    0.00    0.00    102.02     10.77   -101.86     -4.71 0 0 0 0
     50      65  0.005258  0.037515   0.01148    237.35    237.35    237.35 1.00000    0.000 1    0.00    0.00    -72.78    -11.35     73.07     12.24 0 0 0 0
     50     210  0.003529  0.120000   0.00000    100.00    100.00    100.00 1.00000    0.000 1    0.00    0.00     -7.95    -10.70      7.95     10.91 0 0 0 0
     51      68  0.004060  0.037344   0.01192    283.00    283.00    283.00 1.00000    0.000 1    0.00    0.00    -45.49      4.67     45.58     -5.08 0 0 0 0
     51      72  0.000709  0.007194   0.00234    304.04    304.04    304.04 1.00000    0.000 1    0.00    0.00    -21.03    -24.32     21.04     24.16 0 0 0 0
    183      52  0.002047  0.021637   0.20301    707.51    707.51    707.51 1.00000    0.000 1    0.00    0.00    -13.24    -39.78     13.26     19.01 0 0 0 0
    206      52  0.000643  0.006662   0.06506    707.51    707.51    707.51 1.00000    0.000 1    0.00    0.00    -47.50    -34.43     47.52     27.88 0 0 0 0
     53      57  0.006894  0.059124   0.01683    261.01    261.01    261.01 1.00000    0.000 1    0.00    0.00      5.11     31.40     -5.03    -32.39 0 0 0 0
     53      73  0.003976  0.033438   0.00991    261.01    261.01    261.01 1.00000    0.000 1    0.00    0.00     25.54    -20.82    -25.50     20.20 0 0 0 0
     53     211  0.000369  0.018462   0.00000    650.00    650.00    650.00 1.00000    0.000 1    0.00    0.00   -163.92    -42.88    164.03     48.25 0 0 0 0
     55      61  0.034539  0.120369   0.21762    229.46    229.46    229.46 1.00000    0.000 1    0.00    0.00    -31.76     -4.08     32.11    -17.05 0 0 0 0
    208      55  0.006202  0.018912   0.03169    206.75    206.75    206.75 1.00000    0.000 1    0.00    0.00     90.47     -1.21    -89.98     -0.56 0 0 0 0
     55     212  0.001261  0.046667   0.00000    150.00    150.00    150.00 1.00000    0.000 1    0.00    0.00      7.25     -7.34     -7.25      7.39 0 0 0 0
    185      56  0.000908  0.009601   0.09009    707.51    707.51    707.51 1.00000    0.000 1    0.00    0.00     71.78    -94.29    -71.66     86.23 0 0 0 0
    191      56  0.000301  0.008151   0.12418   1246.50   1246.50   1246.50 1.00000    0.000 1    0.00    0.00   -475.46      1.92    476.12      2.95 0 0 0 0
     57      60  0.018675  0.042258   0.01054    107.32    107.32    107.32 1.00000    0.000 1    0.00    0.00    -41.26     16.14     41.65    -16.26 0 0 0 0
     58      62  0.002141  0.014851   0.13060    530.03    530.03    530.03 1.00000    0.000 1    0.00    0.00     83.75     10.44    -83.59    -22.55 0 0 0 0
     58      66  0.001447  0.010038   0.08828    530.03    530.03    530.03 1.00000    0.000 1    0.00    0.00    -52.21    -23.42     52.25     14.75 0 0 0 0
    185      58  0.002185  0.015152   0.13324    530.03    530.03    530.03 1.00000    0.000 1    0.00    0.00    140.78      9.76   -140.35    -20.37 0 0 0 0
    191      59  0.000938  0.006385   0.05837    530.03    530.03    530.03 1.00000    0.000 1    0.00    0.00    192.98     10.34   -192.64    -14.08 0 0 0 0
     59     213  0.000907  0.006172   0.05642    530.03    530.03    530.03 1.00000    0.000 1    0.00    0.00    128.32     -7.19   -128.18      2.36 0 0 0 0
     60      63  0.017610  0.040671   0.00973    107.32    107.32    107.32 1.00000    0.000 1    0.00    0.00     44.17    -10.14    -43.79     10.09 0 0 0 0
     60      64  0.005655  0.040347   0.01235    237.35    237.35    237.35 1.00000    0.000 1    0.00    0.00   -159.76      2.73    161.28      6.92 0 0 0 0
     61     143  0.002057  0.016137   0.03143    395.58    395.58    395.58 1.00000    0.000 1    0.00    0.00     19.08    -32.53    -19.05     29.49 0 0 0 0
    192      61  0.004667  0.025655   0.04713    312.32    312.32    312.32 1.00000    0.000 1    0.00    0.00    -61.34      2.29     61.51     -6.20 0 0 0 0
     61     213  0.000519  0.023333   0.00000    300.00    300.00    300.00 1.00000    0.000 1    0.00    0.00   -128.10      6.08    128.18     -2.36 0 0 0 0
     63      75  0.005417  0.046454   0.01323    261.01    261.01    261.01 1.00000    0.000 1    0.00    0.00    -42.93    -32.50     43.09     32.64 0 0 0 0
     64     214  0.000336  0.017143   0.00000    700.00    700.00    700.00 1.00000    0.000 1    0.00    0.00   -302.97    -46.42    303.29     63.02 0 0 0 0
     66      71  0.001271  0.008811   0.07749    530.03    530.03    530.03 1.00000    0.000 1    0.00    0.00   -114.06    -34.34    114.23     27.61 0 0 0 0
     67      68  0.002882  0.026509   0.00846    283.00    283.00    283.00 1.00000    0.000 1    0.00    0.00    -75.38    -19.76     75.55     20.55 0 0 0 0
     68     215  0.000336  0.017143   0.00000    700.00    700.00    700.00 1.00000    0.000 1    0.00    0.00   -213.51    -43.99    213.67     52.14 0 0 0 0
    189      69  0.001131  0.007735   0.06999    530.03    530.03    530.03 1.00000    0.000 1    0.00    0.00     -3.58    -31.05      3.59     23.84 0 0 0 0
     69     247  0.002929  0.020317   0.17866    530.03    530.03    530.03 1.00000    0.000 1    0.00    0.00    126.56     44.95   -126.02    -59.58 0 0 0 0
     71      76  0.001422  0.009863   0.08674    530.03    530.03    530.03 1.00000    0.000 1    0.00    0.00   -168.53    -44.82    168.94     38.74 0 0 0 0
     72      73  0.000275  0.004586   0.00284    424.03    424.03    424.03 1.00000    0.000 1    0.00    0.00     33.11     37.74    -33.10    -37.91 0 0 0 0
    182      74  0.000498  0.003455   0.03038    530.03    530.03    530.03 1.00000    0.000 1    0.00    0.00    110.39     29.11   -110.32    -31.75 0 0 0 0
    210      74  0.001292  0.011415   0.10343    623.25    623.25    623.25 1.00000    0.000 1    0.00    0.00     49.24     26.03    -49.20    -36.17 0 0 0 0
     74     216  0.000640  0.004357   0.03984    530.03    530.03    530.03 1.00000    0.000 1    0.00    0.00     95.04     45.56    -94.97    -49.10 0 0 0 0
     75     216  0.000638  0.030000   0.00000    400.00    400.00    400.00 1.00000    0.000 1    0.00    0.00    -94.89    -45.70     94.97     49.10 0 0 0 0
    190      76  0.001435  0.009955   0.08755    530.03    530.03    530.03 1.00000    0.000 1    0.00    0.00    135.48    -38.08   -135.21     30.85 0 0 0 0
     76     238  0.003386  0.047034   0.46520    868.25    868.25    868.25 1.00000    0.000 1    0.00    0.00    391.05     34.14   -385.96    -10.76 0 0 0 0
     77      84  0.006198  0.069744   0.01841    304.04    304.04    304.04 1.00000    0.000 1    0.00    0.00    -33.51    -27.69     33.63     27.11 0 0 0 0
     77      89  0.016077  0.099621   0.02821    212.01    212.01    212.01 1.00000    0.000 1    0.00    0.00     65.28     22.46    -64.50    -20.33 0 0 0 0
     77     217  0.005926  0.160000   0.00000     50.00     50.00     50.00 1.00000    0.000 1    0.00    0.00    -20.87     -4.55     20.90      5.28 0 0 0 0
     77     218  0.003529  0.120000   0.00000    100.00    100.00    100.00 1.00000    0.000 1    0.00    0.00    -25.34    -17.93     25.37     19.09 0 0 0 0
     78      79  0.014099  0.097781   0.85988    511.35    511.35    511.35 1.00000    0.000 1    0.00    0.00    130.02   -109.40   -127.46     25.14 0 0 0 0
     78     167  0.005724  0.038942   0.35603    530.03    530.03    530.03 1.00000    0.000 1    0.00    0.00    -58.30     24.96     58.57    -63.05 0 0 0 0
     79      87  0.008106  0.052075   0.53493    530.03    530.03    530.03 1.00000    0.000 1    0.00    0.00     13.15    -56.41    -13.10     -9.98 0 0 0 0
     80      81  0.005975  0.042908   0.35164    530.03    530.03    530.03 1.00000    0.000 1    0.00    0.00    -49.82     29.78     50.07    -69.16 0 0 0 0
     80      87  0.003558  0.071801   1.18166    696.37    696.37    696.37 1.00000    0.000 1    0.00    0.00     94.25   -118.69    -93.92    -19.19 0 0 0 0
     81      82  0.007764  0.053845   0.47351    530.03    530.03    530.03 1.00000    0.000 1    0.00    0.00   -148.31     42.27    150.12    -83.29 0 0 0 0
     82      83  0.007662  0.053138   0.46730    530.03    530.03    530.03 1.00000    0.000 1    0.00    0.00     -5.75      6.68      5.82    -57.18 0 0 0 0
     83     219  0.005009  0.034736   0.30546    530.03    530.03    530.03 1.00000    0.000 1    0.00    0.00    -75.68     34.35     76.06    -64.10 0 0 0 0
     84     219  0.000224  0.011429   0.00000   1050.00   1050.00   1050.00 1.00000    0.000 1    0.00    0.00    -89.09    -52.62     89.11     53.80 0 0 0 0
     85     154  0.017306  0.084819   0.15179    289.22    289.22    289.22 1.00000    0.000 1    0.00    0.00    -95.79     19.35     97.52    -25.81 0 0 0 0
    217      85  0.004299  0.043533   0.08806    471.67    471.67    471.67 1.00000    0.000 1    0.00    0.00    -37.03     26.52     37.12    -34.32 0 0 0 0
     86      88  0.044131  0.145633   0.03817    137.68    137.68    137.68 1.00000    0.000 1    0.00    0.00     -7.14    -14.72      7.24     11.21 0 0 0 0
     86     169  0.025279  0.129580   0.03558    187.39    187.39    187.39 1.00000    0.000 1    0.00    0.00    -86.59     17.51     88.62    -10.64 0 0 0 0
     86     220  0.000744  0.032000   0.00000    250.00    250.00    250.00 1.00000    0.000 1    0.00    0.00     -0.65    -26.64      0.66     26.87 0 0 0 0
...